<?xml version="1.0" encoding="UTF-8"?>

<!-- generated on Tue Jul 10 21:00:21 2012 by SUMO netconvert Version 0.15.0
<?xml version="1.0" encoding="UTF-8"?>

<configuration xmlns:xsi="http://www.w3.org/2001/XMLSchema-instance" xsi:noNamespaceSchemaLocation="http://sumo.sf.net/xsd/netconvertConfiguration.xsd">

    <input>
        <node-files value="autobahnkreuz.nod.xml"/>
        <edge-files value="autobahnkreuz.edg.xml"/>
        <connection-files value="autobahnkreuz.con.xml"/>
    </input>

    <output>
        <output-file value="autobahnkreuz.net.xml"/>
    </output>

</configuration>
-->

<net version="0.13" xmlns:xsi="http://www.w3.org/2001/XMLSchema-instance" xsi:noNamespaceSchemaLocation="http://sumo.sf.net/xsd/net_file.xsd">

    <location netOffset="1000.00,1000.00" convBoundary="0.00,0.00,2000.00,2000.00" origBoundary="-1000.00,-1000.00,1000.00,1000.00" projParameter="!"/>

    <edge id=":1_2_0" function="internal">
        <lane id=":1_2_0_0" index="0" speed="42.50" length="11.11" shape="1014.85,498.50 1014.95,502.69 1015.23,505.89 1015.71,508.13 1016.38,509.38"/>
    </edge>
    <edge id=":1_2_1" function="internal">
        <lane id=":1_2_1_0" index="0" speed="42.50" length="13.66" shape="1011.55,498.50 1011.71,503.34 1012.17,507.16 1012.95,509.95 1014.05,511.71"/>
    </edge>
    <edge id=":1_2_2" function="internal">
        <lane id=":1_2_2_0" index="0" speed="55.00" length="12.78" shape="1008.25,498.50 1008.25,502.29 1008.25,504.89 1008.25,507.49 1008.25,511.28"/>
    </edge>
    <edge id=":1_2_3" function="internal">
        <lane id=":1_2_3_0" index="0" speed="55.00" length="12.78" shape="1004.95,498.50 1004.95,502.29 1004.95,504.89 1004.95,507.49 1004.95,511.28"/>
    </edge>
    <edge id=":1_2_4" function="internal">
        <lane id=":1_2_4_0" index="0" speed="55.00" length="12.78" shape="1001.65,498.50 1001.65,502.29 1001.65,504.89 1001.65,507.49 1001.65,511.28"/>
    </edge>
    <edge id=":1_3_0" function="internal">
        <lane id=":1_3_0_0" index="0" speed="42.50" length="4.13" shape="1014.98,862.69 1014.85,866.81"/>
    </edge>
    <edge id=":1_3_1" function="internal">
        <lane id=":1_3_1_0" index="0" speed="42.50" length="6.48" shape="1011.74,860.33 1011.55,866.81"/>
    </edge>
    <edge id=":1_3_2" function="internal">
        <lane id=":1_3_2_0" index="0" speed="55.00" length="5.21" shape="1008.25,861.61 1008.25,866.81"/>
    </edge>
    <edge id=":1_3_3" function="internal">
        <lane id=":1_3_3_0" index="0" speed="55.00" length="5.21" shape="1004.95,861.61 1004.95,866.81"/>
    </edge>
    <edge id=":1_3_4" function="internal">
        <lane id=":1_3_4_0" index="0" speed="55.00" length="5.21" shape="1001.65,861.61 1001.65,866.81"/>
    </edge>
    <edge id=":1_4_0" function="internal">
        <lane id=":1_4_0_0" index="0" speed="55.00" length="0.10" shape="1008.25,1000.00 1008.25,1000.00"/>
    </edge>
    <edge id=":1_4_1" function="internal">
        <lane id=":1_4_1_0" index="0" speed="55.00" length="0.10" shape="1004.95,1000.00 1004.95,1000.00"/>
    </edge>
    <edge id=":1_4_2" function="internal">
        <lane id=":1_4_2_0" index="0" speed="55.00" length="0.10" shape="1001.65,1000.00 1001.65,1000.00"/>
    </edge>
    <edge id=":1_5_0" function="internal">
        <lane id=":1_5_0_0" index="0" speed="42.50" length="11.49" shape="1014.85,1123.50 1014.86,1126.91 1014.88,1129.24 1014.91,1131.58 1014.95,1134.99"/>
    </edge>
    <edge id=":1_5_1" function="internal">
        <lane id=":1_5_1_0" index="0" speed="42.50" length="14.22" shape="1011.55,1123.50 1011.54,1127.72 1011.54,1130.61 1011.58,1133.50 1011.69,1137.72"/>
    </edge>
    <edge id=":1_5_2" function="internal">
        <lane id=":1_5_2_0" index="0" speed="55.00" length="12.78" shape="1008.25,1123.50 1008.25,1127.29 1008.25,1129.89 1008.25,1132.49 1008.25,1136.28"/>
    </edge>
    <edge id=":1_5_3" function="internal">
        <lane id=":1_5_3_0" index="0" speed="55.00" length="12.78" shape="1004.95,1123.50 1004.95,1127.29 1004.95,1129.89 1004.95,1132.49 1004.95,1136.28"/>
    </edge>
    <edge id=":1_5_4" function="internal">
        <lane id=":1_5_4_0" index="0" speed="55.00" length="12.78" shape="1001.65,1123.50 1001.65,1127.29 1001.65,1129.89 1001.65,1132.49 1001.65,1136.28"/>
    </edge>
    <edge id=":1_6_0" function="internal">
        <lane id=":1_6_0_0" index="0" speed="42.50" length="11.11" shape="1016.38,1490.62 1015.71,1491.87 1015.23,1494.11 1014.95,1497.31 1014.85,1501.50"/>
    </edge>
    <edge id=":1_6_1" function="internal">
        <lane id=":1_6_1_0" index="0" speed="42.50" length="13.66" shape="1014.05,1488.29 1012.95,1490.05 1012.17,1492.84 1011.71,1496.66 1011.55,1501.50"/>
    </edge>
    <edge id=":1_6_2" function="internal">
        <lane id=":1_6_2_0" index="0" speed="55.00" length="12.78" shape="1008.25,1488.72 1008.25,1492.51 1008.25,1495.11 1008.25,1497.71 1008.25,1501.50"/>
    </edge>
    <edge id=":1_6_3" function="internal">
        <lane id=":1_6_3_0" index="0" speed="55.00" length="12.78" shape="1004.95,1488.72 1004.95,1492.51 1004.95,1495.11 1004.95,1497.71 1004.95,1501.50"/>
    </edge>
    <edge id=":1_6_4" function="internal">
        <lane id=":1_6_4_0" index="0" speed="55.00" length="12.78" shape="1001.65,1488.72 1001.65,1492.51 1001.65,1495.11 1001.65,1497.71 1001.65,1501.50"/>
    </edge>
    <edge id=":2_2_0" function="internal">
        <lane id=":2_2_0_0" index="0" speed="42.50" length="11.11" shape="498.50,985.15 502.69,985.05 505.89,984.77 508.13,984.29 509.38,983.62"/>
    </edge>
    <edge id=":2_2_1" function="internal">
        <lane id=":2_2_1_0" index="0" speed="42.50" length="13.66" shape="498.50,988.45 503.34,988.29 507.16,987.83 509.95,987.05 511.71,985.95"/>
    </edge>
    <edge id=":2_2_2" function="internal">
        <lane id=":2_2_2_0" index="0" speed="55.00" length="12.78" shape="498.50,991.75 502.29,991.75 504.89,991.75 507.49,991.75 511.28,991.75"/>
    </edge>
    <edge id=":2_2_3" function="internal">
        <lane id=":2_2_3_0" index="0" speed="55.00" length="12.78" shape="498.50,995.05 502.29,995.05 504.89,995.05 507.49,995.05 511.28,995.05"/>
    </edge>
    <edge id=":2_2_4" function="internal">
        <lane id=":2_2_4_0" index="0" speed="55.00" length="12.78" shape="498.50,998.35 502.29,998.35 504.89,998.35 507.49,998.35 511.28,998.35"/>
    </edge>
    <edge id=":2_3_0" function="internal">
        <lane id=":2_3_0_0" index="0" speed="42.50" length="4.13" shape="862.69,985.02 866.81,985.15"/>
    </edge>
    <edge id=":2_3_1" function="internal">
        <lane id=":2_3_1_0" index="0" speed="42.50" length="6.48" shape="860.33,988.26 866.81,988.45"/>
    </edge>
    <edge id=":2_3_2" function="internal">
        <lane id=":2_3_2_0" index="0" speed="55.00" length="5.21" shape="861.61,991.75 866.81,991.75"/>
    </edge>
    <edge id=":2_3_3" function="internal">
        <lane id=":2_3_3_0" index="0" speed="55.00" length="5.21" shape="861.61,995.05 866.81,995.05"/>
    </edge>
    <edge id=":2_3_4" function="internal">
        <lane id=":2_3_4_0" index="0" speed="55.00" length="5.21" shape="861.61,998.35 866.81,998.35"/>
    </edge>
    <edge id=":2_4_0" function="internal">
        <lane id=":2_4_0_0" index="0" speed="55.00" length="0.10" shape="1000.00,991.75 1000.00,991.75"/>
    </edge>
    <edge id=":2_4_1" function="internal">
        <lane id=":2_4_1_0" index="0" speed="55.00" length="0.10" shape="1000.00,995.05 1000.00,995.05"/>
    </edge>
    <edge id=":2_4_2" function="internal">
        <lane id=":2_4_2_0" index="0" speed="55.00" length="0.10" shape="1000.00,998.35 1000.00,998.35"/>
    </edge>
    <edge id=":2_5_0" function="internal">
        <lane id=":2_5_0_0" index="0" speed="42.50" length="11.49" shape="1123.50,985.15 1126.91,985.14 1129.24,985.12 1131.58,985.09 1134.99,985.05"/>
    </edge>
    <edge id=":2_5_1" function="internal">
        <lane id=":2_5_1_0" index="0" speed="42.50" length="14.22" shape="1123.50,988.45 1127.72,988.46 1130.61,988.46 1133.50,988.42 1137.72,988.31"/>
    </edge>
    <edge id=":2_5_2" function="internal">
        <lane id=":2_5_2_0" index="0" speed="55.00" length="12.78" shape="1123.50,991.75 1127.29,991.75 1129.89,991.75 1132.49,991.75 1136.28,991.75"/>
    </edge>
    <edge id=":2_5_3" function="internal">
        <lane id=":2_5_3_0" index="0" speed="55.00" length="12.78" shape="1123.50,995.05 1127.29,995.05 1129.89,995.05 1132.49,995.05 1136.28,995.05"/>
    </edge>
    <edge id=":2_5_4" function="internal">
        <lane id=":2_5_4_0" index="0" speed="55.00" length="12.78" shape="1123.50,998.35 1127.29,998.35 1129.89,998.35 1132.49,998.35 1136.28,998.35"/>
    </edge>
    <edge id=":2_6_0" function="internal">
        <lane id=":2_6_0_0" index="0" speed="42.50" length="11.11" shape="1490.62,983.62 1491.87,984.29 1494.11,984.77 1497.31,985.05 1501.50,985.15"/>
    </edge>
    <edge id=":2_6_1" function="internal">
        <lane id=":2_6_1_0" index="0" speed="42.50" length="13.66" shape="1488.29,985.95 1490.05,987.05 1492.84,987.83 1496.66,988.29 1501.50,988.45"/>
    </edge>
    <edge id=":2_6_2" function="internal">
        <lane id=":2_6_2_0" index="0" speed="55.00" length="12.78" shape="1488.72,991.75 1492.51,991.75 1495.11,991.75 1497.71,991.75 1501.50,991.75"/>
    </edge>
    <edge id=":2_6_3" function="internal">
        <lane id=":2_6_3_0" index="0" speed="55.00" length="12.78" shape="1488.72,995.05 1492.51,995.05 1495.11,995.05 1497.71,995.05 1501.50,995.05"/>
    </edge>
    <edge id=":2_6_4" function="internal">
        <lane id=":2_6_4_0" index="0" speed="55.00" length="12.78" shape="1488.72,998.35 1492.51,998.35 1495.11,998.35 1497.71,998.35 1501.50,998.35"/>
    </edge>
    <edge id=":3_2_0" function="internal">
        <lane id=":3_2_0_0" index="0" speed="55.00" length="12.78" shape="991.75,511.28 991.75,507.49 991.75,504.89 991.75,502.29 991.75,498.50"/>
    </edge>
    <edge id=":3_2_1" function="internal">
        <lane id=":3_2_1_0" index="0" speed="55.00" length="12.78" shape="995.05,511.28 995.05,507.49 995.05,504.89 995.05,502.29 995.05,498.50"/>
    </edge>
    <edge id=":3_2_2" function="internal">
        <lane id=":3_2_2_0" index="0" speed="55.00" length="12.78" shape="998.35,511.28 998.35,507.49 998.35,504.89 998.35,502.29 998.35,498.50"/>
    </edge>
    <edge id=":3_2_3" function="internal">
        <lane id=":3_2_3_0" index="0" speed="42.50" length="11.11" shape="983.62,509.38 984.29,508.13 984.77,505.89 985.05,502.69 985.15,498.50"/>
    </edge>
    <edge id=":3_2_4" function="internal">
        <lane id=":3_2_4_0" index="0" speed="42.50" length="13.66" shape="985.95,511.71 987.05,509.95 987.83,507.16 988.29,503.34 988.45,498.50"/>
    </edge>
    <edge id=":3_3_0" function="internal">
        <lane id=":3_3_0_0" index="0" speed="42.50" length="11.49" shape="985.15,876.50 985.14,873.09 985.12,870.76 985.09,868.42 985.05,865.01"/>
    </edge>
    <edge id=":3_3_1" function="internal">
        <lane id=":3_3_1_0" index="0" speed="42.50" length="14.22" shape="988.45,876.50 988.46,872.28 988.46,869.39 988.42,866.50 988.31,862.28"/>
    </edge>
    <edge id=":3_3_2" function="internal">
        <lane id=":3_3_2_0" index="0" speed="55.00" length="12.78" shape="991.75,876.50 991.75,872.71 991.75,870.11 991.75,867.51 991.75,863.72"/>
    </edge>
    <edge id=":3_3_3" function="internal">
        <lane id=":3_3_3_0" index="0" speed="55.00" length="12.78" shape="995.05,876.50 995.05,872.71 995.05,870.11 995.05,867.51 995.05,863.72"/>
    </edge>
    <edge id=":3_3_4" function="internal">
        <lane id=":3_3_4_0" index="0" speed="55.00" length="12.78" shape="998.35,876.50 998.35,872.71 998.35,870.11 998.35,867.51 998.35,863.72"/>
    </edge>
    <edge id=":3_4_0" function="internal">
        <lane id=":3_4_0_0" index="0" speed="55.00" length="0.10" shape="991.75,1000.00 991.75,1000.00"/>
    </edge>
    <edge id=":3_4_1" function="internal">
        <lane id=":3_4_1_0" index="0" speed="55.00" length="0.10" shape="995.05,1000.00 995.05,1000.00"/>
    </edge>
    <edge id=":3_4_2" function="internal">
        <lane id=":3_4_2_0" index="0" speed="55.00" length="0.10" shape="998.35,1000.00 998.35,1000.00"/>
    </edge>
    <edge id=":3_5_0" function="internal">
        <lane id=":3_5_0_0" index="0" speed="55.00" length="5.21" shape="991.75,1138.39 991.75,1133.19"/>
    </edge>
    <edge id=":3_5_1" function="internal">
        <lane id=":3_5_1_0" index="0" speed="55.00" length="5.21" shape="995.05,1138.39 995.05,1133.19"/>
    </edge>
    <edge id=":3_5_2" function="internal">
        <lane id=":3_5_2_0" index="0" speed="55.00" length="5.21" shape="998.35,1138.39 998.35,1133.19"/>
    </edge>
    <edge id=":3_5_3" function="internal">
        <lane id=":3_5_3_0" index="0" speed="42.50" length="4.13" shape="985.02,1137.31 985.15,1133.19"/>
    </edge>
    <edge id=":3_5_4" function="internal">
        <lane id=":3_5_4_0" index="0" speed="42.50" length="6.48" shape="988.26,1139.67 988.45,1133.19"/>
    </edge>
    <edge id=":3_6_0" function="internal">
        <lane id=":3_6_0_0" index="0" speed="42.50" length="11.56" shape="985.15,1501.50 985.46,1498.03 985.84,1495.46 985.50,1493.19 983.62,1490.62"/>
    </edge>
    <edge id=":3_6_1" function="internal">
        <lane id=":3_6_1_0" index="0" speed="42.50" length="13.66" shape="988.45,1501.50 988.29,1496.66 987.83,1492.84 987.05,1490.05 985.95,1488.29"/>
    </edge>
    <edge id=":3_6_2" function="internal">
        <lane id=":3_6_2_0" index="0" speed="55.00" length="12.78" shape="991.75,1501.50 991.75,1497.71 991.75,1495.11 991.75,1492.51 991.75,1488.72"/>
    </edge>
    <edge id=":3_6_3" function="internal">
        <lane id=":3_6_3_0" index="0" speed="55.00" length="12.78" shape="995.05,1501.50 995.05,1497.71 995.05,1495.11 995.05,1492.51 995.05,1488.72"/>
    </edge>
    <edge id=":3_6_4" function="internal">
        <lane id=":3_6_4_0" index="0" speed="55.00" length="12.78" shape="998.35,1501.50 998.35,1497.71 998.35,1495.11 998.35,1492.51 998.35,1488.72"/>
    </edge>
    <edge id=":4_2_0" function="internal">
        <lane id=":4_2_0_0" index="0" speed="42.50" length="11.11" shape="509.38,1016.38 508.13,1015.71 505.89,1015.23 502.69,1014.95 498.50,1014.85"/>
    </edge>
    <edge id=":4_2_1" function="internal">
        <lane id=":4_2_1_0" index="0" speed="42.50" length="13.66" shape="511.71,1014.05 509.95,1012.95 507.16,1012.17 503.34,1011.71 498.50,1011.55"/>
    </edge>
    <edge id=":4_2_2" function="internal">
        <lane id=":4_2_2_0" index="0" speed="55.00" length="12.78" shape="511.28,1008.25 507.49,1008.25 504.89,1008.25 502.29,1008.25 498.50,1008.25"/>
    </edge>
    <edge id=":4_2_3" function="internal">
        <lane id=":4_2_3_0" index="0" speed="55.00" length="12.78" shape="511.28,1004.95 507.49,1004.95 504.89,1004.95 502.29,1004.95 498.50,1004.95"/>
    </edge>
    <edge id=":4_2_4" function="internal">
        <lane id=":4_2_4_0" index="0" speed="55.00" length="12.78" shape="511.28,1001.65 507.49,1001.65 504.89,1001.65 502.29,1001.65 498.50,1001.65"/>
    </edge>
    <edge id=":4_3_0" function="internal">
        <lane id=":4_3_0_0" index="0" speed="42.50" length="4.30" shape="869.31,1014.85 865.01,1014.95"/>
    </edge>
    <edge id=":4_3_1" function="internal">
        <lane id=":4_3_1_0" index="0" speed="42.50" length="7.03" shape="869.31,1011.55 862.28,1011.69"/>
    </edge>
    <edge id=":4_3_2" function="internal">
        <lane id=":4_3_2_0" index="0" speed="55.00" length="5.59" shape="869.31,1008.25 863.72,1008.25"/>
    </edge>
    <edge id=":4_3_3" function="internal">
        <lane id=":4_3_3_0" index="0" speed="55.00" length="5.59" shape="869.31,1004.95 863.72,1004.95"/>
    </edge>
    <edge id=":4_3_4" function="internal">
        <lane id=":4_3_4_0" index="0" speed="55.00" length="5.59" shape="869.31,1001.65 863.72,1001.65"/>
    </edge>
    <edge id=":4_4_0" function="internal">
        <lane id=":4_4_0_0" index="0" speed="55.00" length="0.10" shape="1000.00,1008.25 1000.00,1008.25"/>
    </edge>
    <edge id=":4_4_1" function="internal">
        <lane id=":4_4_1_0" index="0" speed="55.00" length="0.10" shape="1000.00,1004.95 1000.00,1004.95"/>
    </edge>
    <edge id=":4_4_2" function="internal">
        <lane id=":4_4_2_0" index="0" speed="55.00" length="0.10" shape="1000.00,1001.65 1000.00,1001.65"/>
    </edge>
    <edge id=":4_5_0" function="internal">
        <lane id=":4_5_0_0" index="0" speed="42.50" length="3.92" shape="1137.31,1014.98 1133.39,1014.85"/>
    </edge>
    <edge id=":4_5_1" function="internal">
        <lane id=":4_5_1_0" index="0" speed="42.50" length="6.28" shape="1139.67,1011.74 1133.39,1011.55"/>
    </edge>
    <edge id=":4_5_2" function="internal">
        <lane id=":4_5_2_0" index="0" speed="55.00" length="5.00" shape="1138.39,1008.25 1133.39,1008.25"/>
    </edge>
    <edge id=":4_5_3" function="internal">
        <lane id=":4_5_3_0" index="0" speed="55.00" length="5.00" shape="1138.39,1004.95 1133.39,1004.95"/>
    </edge>
    <edge id=":4_5_4" function="internal">
        <lane id=":4_5_4_0" index="0" speed="55.00" length="5.00" shape="1138.39,1001.65 1133.39,1001.65"/>
    </edge>
    <edge id=":4_6_0" function="internal">
        <lane id=":4_6_0_0" index="0" speed="42.50" length="11.11" shape="1501.50,1014.85 1497.31,1014.95 1494.11,1015.23 1491.87,1015.71 1490.62,1016.38"/>
    </edge>
    <edge id=":4_6_1" function="internal">
        <lane id=":4_6_1_0" index="0" speed="42.50" length="13.66" shape="1501.50,1011.55 1496.66,1011.71 1492.84,1012.17 1490.05,1012.95 1488.29,1014.05"/>
    </edge>
    <edge id=":4_6_2" function="internal">
        <lane id=":4_6_2_0" index="0" speed="55.00" length="12.78" shape="1501.50,1008.25 1497.71,1008.25 1495.11,1008.25 1492.51,1008.25 1488.72,1008.25"/>
    </edge>
    <edge id=":4_6_3" function="internal">
        <lane id=":4_6_3_0" index="0" speed="55.00" length="12.78" shape="1501.50,1004.95 1497.71,1004.95 1495.11,1004.95 1492.51,1004.95 1488.72,1004.95"/>
    </edge>
    <edge id=":4_6_4" function="internal">
        <lane id=":4_6_4_0" index="0" speed="55.00" length="12.78" shape="1501.50,1001.65 1497.71,1001.65 1495.11,1001.65 1492.51,1001.65 1488.72,1001.65"/>
    </edge>

    <edge id="1_1_2" from="1_1" to="1_2" priority="-1">
        <lane id="1_1_2_0" index="0" speed="55.00" length="498.50" shape="1014.85,0.00 1014.85,498.50"/>
        <lane id="1_1_2_1" index="1" speed="55.00" length="498.50" shape="1011.55,0.00 1011.55,498.50"/>
        <lane id="1_1_2_2" index="2" speed="55.00" length="498.50" shape="1008.25,0.00 1008.25,498.50"/>
        <lane id="1_1_2_3" index="3" speed="55.00" length="498.50" shape="1004.95,0.00 1004.95,498.50"/>
        <lane id="1_1_2_4" index="4" speed="55.00" length="498.50" shape="1001.65,0.00 1001.65,498.50"/>
    </edge>
    <edge id="1_2-2_6" from="1_2" to="2_6" priority="-1">
        <lane id="1_2-2_6_0" index="0" speed="30.00" length="670.68" shape="1016.38,509.38 1490.62,983.62"/>
        <lane id="1_2-2_6_1" index="1" speed="30.00" length="670.68" shape="1014.05,511.71 1488.29,985.95"/>
    </edge>
    <edge id="1_2_3" from="1_2" to="1_3" priority="-1">
        <lane id="1_2_3_0" index="0" speed="55.00" length="350.33" shape="1008.25,511.28 1008.25,861.61"/>
        <lane id="1_2_3_1" index="1" speed="55.00" length="350.33" shape="1004.95,511.28 1004.95,861.61"/>
        <lane id="1_2_3_2" index="2" speed="55.00" length="350.33" shape="1001.65,511.28 1001.65,861.61"/>
    </edge>
    <edge id="1_3_4" from="1_3" to="1_4" priority="-1">
        <lane id="1_3_4_0" index="0" speed="55.00" length="133.19" shape="1014.85,866.81 1014.85,1000.00"/>
        <lane id="1_3_4_1" index="1" speed="55.00" length="133.19" shape="1011.55,866.81 1011.55,1000.00"/>
        <lane id="1_3_4_2" index="2" speed="55.00" length="133.19" shape="1008.25,866.81 1008.25,1000.00"/>
        <lane id="1_3_4_3" index="3" speed="55.00" length="133.19" shape="1004.95,866.81 1004.95,1000.00"/>
        <lane id="1_3_4_4" index="4" speed="55.00" length="133.19" shape="1001.65,866.81 1001.65,1000.00"/>
    </edge>
    <edge id="1_4_5" from="1_4" to="1_5" priority="-1">
        <lane id="1_4_5_0" index="0" speed="55.00" length="123.50" shape="1014.85,1000.00 1014.85,1123.50"/>
        <lane id="1_4_5_1" index="1" speed="55.00" length="123.50" shape="1011.55,1000.00 1011.55,1123.50"/>
        <lane id="1_4_5_2" index="2" speed="55.00" length="123.50" shape="1008.25,1000.00 1008.25,1123.50"/>
        <lane id="1_4_5_3" index="3" speed="55.00" length="123.50" shape="1004.95,1000.00 1004.95,1123.50"/>
        <lane id="1_4_5_4" index="4" speed="55.00" length="123.50" shape="1001.65,1000.00 1001.65,1123.50"/>
    </edge>
    <edge id="1_5-4_5" from="1_5" to="4_5" priority="-1" shape="1000.00,1125.00 1010.00,1135.00 1010.02,1137.18 1010.08,1139.36 1010.17,1141.54 1010.30,1143.72 1010.48,1145.89 1010.68,1148.07 1010.93,1150.23 1011.22,1152.40 1011.54,1154.55 1011.90,1156.71 1012.30,1158.85 1012.73,1160.99 1013.20,1163.12 1013.71,1165.24 1014.26,1167.35 1014.84,1169.45 1015.46,1171.55 1016.12,1173.63 1016.81,1175.70 1017.54,1177.75 1018.30,1179.80 1019.10,1181.83 1019.94,1183.84 1020.81,1185.84 1021.71,1187.83 1022.65,1189.80 1023.62,1191.75 1024.63,1193.68 1025.67,1195.60 1026.75,1197.50 1027.85,1199.38 1028.99,1201.24 1030.17,1203.08 1031.37,1204.90 1032.61,1206.70 1033.87,1208.47 1035.17,1210.23 1036.50,1211.96 1037.86,1213.67 1039.24,1215.35 1040.66,1217.01 1042.11,1218.64 1043.58,1220.25 1045.08,1221.83 1046.61,1223.39 1048.17,1224.92 1049.75,1226.42 1051.36,1227.89 1052.99,1229.34 1054.65,1230.76 1056.33,1232.14 1058.04,1233.50 1059.77,1234.83 1061.53,1236.13 1063.30,1237.39 1065.10,1238.63 1066.92,1239.83 1068.76,1241.01 1070.62,1242.15 1072.50,1243.25 1074.40,1244.33 1076.32,1245.37 1078.25,1246.38 1080.20,1247.35 1082.17,1248.29 1084.16,1249.19 1086.16,1250.06 1088.17,1250.90 1090.20,1251.70 1092.25,1252.46 1094.30,1253.19 1096.37,1253.88 1098.45,1254.54 1100.55,1255.16 1102.65,1255.74 1104.76,1256.29 1106.88,1256.80 1109.01,1257.27 1111.15,1257.70 1113.29,1258.10 1115.45,1258.46 1117.60,1258.78 1119.77,1259.07 1121.93,1259.32 1124.11,1259.52 1126.28,1259.70 1128.46,1259.83 1130.64,1259.92 1132.82,1259.98 1135.00,1260.00 1137.18,1259.98 1139.36,1259.92 1141.54,1259.83 1143.72,1259.70 1145.89,1259.52 1148.07,1259.32 1150.23,1259.07 1152.40,1258.78 1154.55,1258.46 1156.71,1258.10 1158.85,1257.70 1160.99,1257.27 1163.12,1256.80 1165.24,1256.29 1167.35,1255.74 1169.45,1255.16 1171.55,1254.54 1173.63,1253.88 1175.70,1253.19 1177.75,1252.46 1179.80,1251.70 1181.83,1250.90 1183.84,1250.06 1185.84,1249.19 1187.83,1248.29 1189.80,1247.35 1191.75,1246.38 1193.68,1245.37 1195.60,1244.33 1197.50,1243.25 1199.38,1242.15 1201.24,1241.01 1203.08,1239.83 1204.90,1238.63 1206.70,1237.39 1208.47,1236.13 1210.23,1234.83 1211.96,1233.50 1213.67,1232.14 1215.35,1230.76 1217.01,1229.34 1218.64,1227.89 1220.25,1226.42 1221.83,1224.92 1223.39,1223.39 1224.92,1221.83 1226.42,1220.25 1227.89,1218.64 1229.34,1217.01 1230.76,1215.35 1232.14,1213.67 1233.50,1211.96 1234.83,1210.23 1236.13,1208.47 1237.39,1206.70 1238.63,1204.90 1239.83,1203.08 1241.01,1201.24 1242.15,1199.38 1243.25,1197.50 1244.33,1195.60 1245.37,1193.68 1246.38,1191.75 1247.35,1189.80 1248.29,1187.83 1249.19,1185.84 1250.06,1183.84 1250.90,1181.83 1251.70,1179.80 1252.46,1177.75 1253.19,1175.70 1253.88,1173.63 1254.54,1171.55 1255.16,1169.45 1255.74,1167.35 1256.29,1165.24 1256.80,1163.12 1257.27,1160.99 1257.70,1158.85 1258.10,1156.71 1258.46,1154.55 1258.78,1152.40 1259.07,1150.23 1259.32,1148.07 1259.52,1145.89 1259.70,1143.72 1259.83,1141.54 1259.92,1139.36 1259.98,1137.18 1260.00,1135.00 1259.98,1132.82 1259.92,1130.64 1259.83,1128.46 1259.70,1126.28 1259.52,1124.11 1259.32,1121.93 1259.07,1119.77 1258.78,1117.60 1258.46,1115.45 1258.10,1113.29 1257.70,1111.15 1257.27,1109.01 1256.80,1106.88 1256.29,1104.76 1255.74,1102.65 1255.16,1100.55 1254.54,1098.45 1253.88,1096.37 1253.19,1094.30 1252.46,1092.25 1251.70,1090.20 1250.90,1088.17 1250.06,1086.16 1249.19,1084.16 1248.29,1082.17 1247.35,1080.20 1246.38,1078.25 1245.37,1076.32 1244.33,1074.40 1243.25,1072.50 1242.15,1070.62 1241.01,1068.76 1239.83,1066.92 1238.63,1065.10 1237.39,1063.30 1236.13,1061.53 1234.83,1059.77 1233.50,1058.04 1232.14,1056.33 1230.76,1054.65 1229.34,1052.99 1227.89,1051.36 1226.42,1049.75 1224.92,1048.17 1223.39,1046.61 1221.83,1045.08 1220.25,1043.58 1218.64,1042.11 1217.01,1040.66 1215.35,1039.24 1213.67,1037.86 1211.96,1036.50 1210.23,1035.17 1208.47,1033.87 1206.70,1032.61 1204.90,1031.37 1203.08,1030.17 1201.24,1028.99 1199.38,1027.85 1197.50,1026.75 1195.60,1025.67 1193.68,1024.63 1191.75,1023.62 1189.80,1022.65 1187.83,1021.71 1185.84,1020.81 1183.84,1019.94 1181.83,1019.10 1179.80,1018.30 1177.75,1017.54 1175.70,1016.81 1173.63,1016.12 1171.55,1015.46 1169.45,1014.84 1167.35,1014.26 1165.24,1013.71 1163.12,1013.20 1160.99,1012.73 1158.85,1012.30 1156.71,1011.90 1154.55,1011.54 1152.40,1011.22 1150.23,1010.93 1148.07,1010.68 1145.89,1010.48 1143.72,1010.30 1141.54,1010.17 1139.36,1010.08 1137.18,1010.02 1125.00,1000.00">
        <lane id="1_5-4_5_0" index="0" speed="30.00" length="568.65" shape="1014.95,1134.99 1014.97,1137.13 1015.03,1139.22 1015.12,1141.34 1015.24,1143.43 1015.41,1145.48 1015.61,1147.62 1015.85,1149.66 1016.13,1151.74 1016.44,1153.82 1016.78,1155.90 1017.17,1157.94 1017.58,1160.01 1018.03,1162.05 1018.52,1164.08 1019.05,1166.10 1019.61,1168.13 1020.21,1170.15 1020.84,1172.13 1021.51,1174.13 1022.20,1176.09 1022.94,1178.08 1023.71,1180.02 1024.51,1181.93 1025.35,1183.87 1026.22,1185.79 1027.12,1187.67 1028.05,1189.55 1029.02,1191.38 1030.02,1193.24 1031.05,1195.05 1032.12,1196.88 1033.21,1198.65 1034.34,1200.41 1035.50,1202.18 1036.69,1203.89 1037.90,1205.60 1039.15,1207.29 1040.42,1208.94 1041.73,1210.59 1043.06,1212.21 1044.42,1213.79 1045.81,1215.35 1047.24,1216.91 1048.67,1218.42 1050.14,1219.92 1051.64,1221.39 1053.16,1222.83 1054.70,1224.23 1056.28,1225.64 1057.87,1227.00 1059.47,1228.32 1061.12,1229.63 1062.79,1230.91 1064.47,1232.15 1066.17,1233.36 1067.91,1234.55 1069.64,1235.70 1071.43,1236.84 1073.21,1237.93 1075.00,1238.98 1076.85,1240.03 1078.68,1241.02 1080.55,1241.99 1082.40,1242.92 1084.30,1243.82 1086.20,1244.68 1088.13,1245.52 1090.08,1246.33 1092.01,1247.09 1093.97,1247.82 1095.96,1248.53 1097.94,1249.18 1099.95,1249.82 1101.95,1250.41 1103.97,1250.97 1106.01,1251.50 1108.04,1251.99 1110.08,1252.44 1112.13,1252.85 1114.20,1253.23 1116.26,1253.58 1118.33,1253.88 1120.43,1254.16 1122.50,1254.40 1124.56,1254.59 1126.69,1254.77 1128.75,1254.89 1130.84,1254.97 1132.96,1255.03 1135.05,1255.05 1137.13,1255.03 1139.22,1254.97 1141.34,1254.88 1143.43,1254.76 1145.48,1254.59 1147.62,1254.39 1149.66,1254.15 1151.74,1253.87 1153.82,1253.56 1155.90,1253.22 1157.94,1252.83 1160.01,1252.42 1162.05,1251.97 1164.08,1251.48 1166.10,1250.95 1168.13,1250.39 1170.15,1249.79 1172.13,1249.16 1174.13,1248.49 1176.09,1247.80 1178.08,1247.06 1180.02,1246.29 1181.93,1245.49 1183.87,1244.65 1185.79,1243.78 1187.67,1242.88 1189.55,1241.95 1191.38,1240.98 1193.24,1239.98 1195.05,1238.95 1196.88,1237.88 1198.65,1236.79 1200.41,1235.66 1202.18,1234.50 1203.89,1233.31 1205.60,1232.10 1207.29,1230.85 1208.94,1229.58 1210.59,1228.27 1212.21,1226.94 1213.79,1225.58 1215.35,1224.19 1216.91,1222.76 1218.42,1221.33 1219.92,1219.86 1221.39,1218.36 1222.83,1216.84 1224.23,1215.30 1225.64,1213.72 1227.00,1212.13 1228.32,1210.53 1229.63,1208.88 1230.91,1207.21 1232.15,1205.53 1233.36,1203.83 1234.55,1202.09 1235.70,1200.36 1236.84,1198.57 1237.93,1196.79 1238.98,1195.00 1240.03,1193.15 1241.02,1191.32 1241.99,1189.45 1242.92,1187.60 1243.82,1185.70 1244.68,1183.80 1245.52,1181.87 1246.33,1179.92 1247.09,1177.99 1247.82,1176.03 1248.53,1174.04 1249.18,1172.06 1249.82,1170.05 1250.41,1168.05 1250.97,1166.03 1251.50,1163.99 1251.99,1161.96 1252.44,1159.92 1252.85,1157.87 1253.23,1155.80 1253.58,1153.74 1253.88,1151.67 1254.16,1149.57 1254.40,1147.50 1254.59,1145.44 1254.77,1143.31 1254.89,1141.25 1254.97,1139.16 1255.03,1137.04 1255.05,1134.95 1255.03,1132.87 1254.97,1130.78 1254.88,1128.66 1254.76,1126.57 1254.59,1124.52 1254.39,1122.38 1254.15,1120.34 1253.87,1118.26 1253.56,1116.18 1253.22,1114.10 1252.83,1112.06 1252.42,1109.99 1251.97,1107.95 1251.48,1105.92 1250.95,1103.90 1250.39,1101.87 1249.79,1099.85 1249.16,1097.87 1248.49,1095.87 1247.80,1093.91 1247.06,1091.92 1246.29,1089.98 1245.49,1088.07 1244.65,1086.13 1243.78,1084.21 1242.88,1082.33 1241.95,1080.45 1240.98,1078.62 1239.98,1076.76 1238.95,1074.95 1237.88,1073.12 1236.79,1071.35 1235.66,1069.59 1234.50,1067.82 1233.31,1066.11 1232.10,1064.40 1230.85,1062.71 1229.58,1061.06 1228.27,1059.41 1226.94,1057.79 1225.58,1056.21 1224.19,1054.65 1222.76,1053.09 1221.33,1051.58 1219.86,1050.08 1218.36,1048.61 1216.84,1047.17 1215.30,1045.77 1213.72,1044.36 1212.13,1043.00 1210.53,1041.68 1208.88,1040.37 1207.21,1039.09 1205.53,1037.85 1203.83,1036.64 1202.09,1035.45 1200.36,1034.30 1198.57,1033.16 1196.79,1032.07 1195.00,1031.02 1193.15,1029.97 1191.32,1028.98 1189.45,1028.01 1187.60,1027.08 1185.70,1026.18 1183.80,1025.32 1181.87,1024.48 1179.92,1023.67 1177.99,1022.91 1176.03,1022.18 1174.04,1021.47 1172.06,1020.82 1170.05,1020.18 1168.05,1019.59 1166.03,1019.03 1163.99,1018.50 1161.96,1018.01 1159.92,1017.56 1157.87,1017.15 1155.80,1016.77 1153.74,1016.42 1151.67,1016.12 1149.57,1015.84 1147.50,1015.60 1145.44,1015.41 1143.31,1015.23 1141.25,1015.11 1139.16,1015.03 1137.31,1014.98"/>