<?xml version="1.0" encoding="UTF-8"?>

<configuration xmlns:xsi="http://www.w3.org/2001/XMLSchema-instance" xsi:noNamespaceSchemaLocation="http://sumo.dlr.de/xsd/sumoConfiguration.xsd">

    <input>
        <net-file value="cross.net.xml"/>
        <route-files value="cross.rou.xml"/>
    </input>

	<processing>
        	<no-internal-links value="true"/>
	        <ignore-accidents value="true"/>
	        <lanechange.allow-swap value="true"/>
	</processing>
	
	<time>
		<begin value="0"/>
		<end value="100"/>
		<step-length value="0.1"/>
	</time>
	
	<gui_only>
        <start value="true"/>
    </gui_only>


</configuration>