[General]
cmdenv-express-mode = true
cmdenv-autoflush = true
cmdenv-status-frequency = 10000000s

#tkenv-default-config = debug
#tkenv-default-run = 1
ned-path = .

network = org.car2x.veins.masterthesis.scenarios.RSUTwentyLarge.RSUExampleScenarios

##########################################################
#            Simulation parameters                       #
##########################################################
debug-on-errors = true
print-undisposed = false

sim-time-limit = 101s

**.scalar-recording = true
**.vector-recording = true
output-vector-file = ${resultdir}/vector-${runnumber}.vec
output-scalar-file = ${resultdir}/scalar-${runnumber}.sca

**.debug = false
**.coreDebug = false

*.playgroundSizeX = 2500m
*.playgroundSizeY = 2500m
*.playgroundSizeZ = 50m


##########################################################
# Annotation parameters                                  #
##########################################################
*.annotations.draw = false

##########################################################
# Obstacle parameters                                    #
##########################################################
#*.obstacles.debug = false
#*.obstacles.obstacles = xmldoc("config.xml", "//AnalogueModel[@type='SimpleObstacleShadowing']/obstacles")

##########################################################
#            WorldUtility parameters                     #
##########################################################
*.world.useTorus = false
*.world.use2D = false

##########################################################
#            TraCIScenarioManager parameters             #
##########################################################
*.manager.updateInterval = 0.1s
*.manager.host = "localhost"
*.manager.port = 9999
*.manager.moduleType = "org.car2x.veins.masterthesis.CarNode"
*.manager.moduleName = "node"
*.manager.moduleDisplayString = ""
*.manager.autoShutdown = true
*.manager.margin = 25
*.manager.launchConfig = xmldoc("cross.launchd.xml")
#*.manager.numVehicles = 150 # added

#test set the max interference manually
*.connectionManager.maxInterference = 0
*.connectionManager.drawMaxIntfDist = true

##########################################################
#                       SETTINGS                         #
#                                                        #
#                                                        #
##########################################################

*.rsu[*].applType = "TraCIDemoRSU11p"
*.node[*].applType = "TraCIDemo11p" # no change

*.**.appl.debug = false
*.**.appl.sendBeacons = true
*.**.appl.dataOnSch = false
*.**.appl.sendData = false
*.**.appl.beaconInterval = 0.1s
*.**.appl.beaconPriority = 3
*.**.appl.dataPriority = 2
*.**.appl.maxOffset = 0.005s
*.**.appl.sendDataInterval = 0.01s # 

#added to seperate between WAVE and ETSI BeaconFormat
*.**.beaconETSI = true	
*.**.beaconWAVE = false
*.**.testCaseNumber = 1.1

*.**.appl.vCBPMeasInt = 0.1s #0.1s
*.**.appl.vCBPWeightFactor = 0.5 #0.5
*.**.appl.vPERSubInterval = 1s #1s
*.**.appl.vPERInterval = 5s # 5s
*.**.appl.vTxCntrlInt = 0.1s # 0.1s
*.**.appl.vPERRange = 100.0 # 100 in meters
*.**.appl.vPERMax = 0.3 # 0.3
*.**.appl.vHVLocalPosEstIntMin = 0.05s #50 ms
*.**.appl.vHVLocalPosEstIntMax = 0.15s #150 ms
*.**.appl.vHVRemotePosEstIntMin = 0.05s #50ms
*.**.appl.vHVRemotePosEstIntMax = 3s # 3000 ms
*.**.appl.vTrackingErrMin = 0.2 #0.2 meter
*.**.appl.vTrackingErrMax = 0.5 #0.5 meter
*.**.appl.vErrSensitivity = 75.0 #75.0
*.**.appl.vMax_ITT = 600 # milliseconds, DON'T use values like 0.6!!!
*.**.appl.vDensityWeightFactor = 0.05 # 0.05
*.**.appl.vDensityCoefficient = 25 # 25
*.**.appl.vRescheduleTh = 0.025s # 0.025 s = 25 ms
*.**.appl.vTimeAccuracy = 0.001s #0.001 --> 1 millisecond
*.**.appl.vRPMax = 20.0 # 20 dBm
*.**.appl.vRPMin = 10.0 # 10 dBm
*.**.appl.vSUPRAGain = 0.5 # 0.5
*.**.appl.vMinChanUtil = 50 # 50%
*.**.appl.vMaxChanUtil = 80 # 80%
*.**.appl.vTxRand = 0.005s # 5 milliseconds
*.**.appl.vRP = 15.0 # 15 dBm -->initial txPower, see above
*.**.appl.vRxSens = -92.0 # -92.0 dBm   DRSC Rx Sensitivity
*.**.appl.vMaxSuccessiveFail = 3.0 # 3.0

#WAVE FLAGS --> useRandomCBPValue also used in ETSI-Mode
*.**.appl.randomCriticalEvent = false # simulates a critical event every 6th second --> in transmission decision


##########################################################
#            11p specific parameters                     #
#                                                        #
#                    NIC-Settings                        #
##########################################################
*.connectionManager.pMax = 20mW #original 20 mW --> in WAVE 100 mW, in ETSI 33 dBM == 1996 mW
*.connectionManager.sat = -92dBm # original -89 dBm --> in WAVE -92 dBm, in ETSI -95!!!
*.connectionManager.alpha = 2.0
# three valus and carrier frequency in config.xml are used to calculate maximumInterfrequenceDistance

#### change between ETSI and WAVE ###
#*.connectionManager.carrierFrequency = 5.890e9 Hz #in WAVE MODE --> also set in config.xml!!!
*.connectionManager.carrierFrequency = 5.900e9 Hz # in ETSI MODE
####

#### change between etsi and wave ####
*.**.nic.phy80211p.decider = xmldoc("configETSI.xml")
*.**.nic.phy80211p.analogueModels = xmldoc("configETSI.xml")
####

*.connectionManager.sendDirect = true # not changed
*.**.nic.mac1609_4.useServiceChannel = false # not changed
*.**.nic.mac1609_4.txPower = 100mW  # not changed --> differs in WAVE and ETSI
*.**.nic.mac1609_4.bitrate = 18Mbps # not changed
*.**.nic.phy80211p.sensitivity = -95dBm # original -89
*.**.nic.phy80211p.useThermalNoise = true # no change
*.**.nic.phy80211p.thermalNoise = -110dBm # no change
*.**.nic.phy80211p.usePropagationDelay = true # no change

########## WAVE ##############
#parameters from SAE J2945, used in BaseWaveAppLayer
*.**.nic.phy80211p.sensitivityWAVE = -92dBm # value vRxSens!!! -92 dBm
*.**.nic.mac1609_4.txPowerWAVE = 15dBm # vRP, see below
*.**.nic.mac1609_4.bitrateWAVE = 6Mbps # --> SAE J2945, Page 73


############### ETSI Parameters ####################
*.**.nic.mac1609_4.NDL_defCarrierSense = -85dBm # NDL_defCarrierSense, means the CCA Threshold!!! BasePhyLayer sensitivity and PhyLayer80211p ccaThreshold
*.**.nic.mac1609_4.NDL_minCarrierSense = -95dBm
*.**.nic.mac1609_4.NDL_maxCarrierSense = -65dBm
*.**.nic.phy80211p.NDL_defDccSensitivity = -85dBm # -85 original

*.**.nic.mac1609_4.NDL_defTxPower = 23dBm # --> mac1609 txPower
*.**.nic.mac1609_4.NDL_minTxPower = -10dBm # -10dbm
*.**.nic.mac1609_4.NDL_maxTxPower = 23dBm # 23dBm
*.**.nic.mac1609_4.NDL_activeTxPower = 20dBm # --> value for AC_VO Priority

*.**.nic.mac1609_4.NDL_defDatarate = 6Mbps # --> bitrate
*.**.nic.mac1609_4.NDL_minDatarate = 3Mbps # 3
*.**.nic.mac1609_4.NDL_maxDatarate = 12Mbps # 12

*.**.nic.mac1609_4.NDL_defPacketInterval = 0.5s # 
*.**.nic.mac1609_4.NDL_minPacketInterval = 0.04s # 0.04 s
*.**.nic.mac1609_4.NDL_maxPacketInterval = 1s # 1s
*.**.nic.mac1609_4.NDL_maxPacketDuration = 0.0006s # 0.6 ms

*.**.nic.mac1609_4.NDL_minChannelLoad = 0.15 # 15%
*.**.nic.mac1609_4.NDL_maxChannelLoad = 0.40 # 40%

*.**.nic.mac1609_4.NDL_timeUp = 1s
*.**.nic.mac1609_4.NDL_timeDown = 5s

# channelLoadInterval --> ETSI Mode
*.**.nic.mac1609_4.channelLoadTimer = 0.1s
#


#no change at all following parameters
##########################################################
#                      Mobility                          #
##########################################################
*.node[*].veinsmobilityType = "org.car2x.veins.modules.mobility.traci.TraCIMobility"
*.node[*].mobilityType = "TraCIMobility"
*.node[*].mobilityType.debug = true
*.node[*].veinsmobilityType.debug = true
*.node[*].veinsmobility.x = 0
*.node[*].veinsmobility.y = 0
*.node[*].veinsmobility.z = 1.895
*.node[*0].veinsmobility.accidentCount = 1
*.node[*0].veinsmobility.accidentStart = 100s
*.node[*0].veinsmobility.accidentDuration = 30s

[Config nodebug]
description = "default settings"
**.debug = false
**.coreDebug = false
*.annotations.draw = false

[Config debug]
description = "(very slow!) draw and print additional debug information"
**.debug = true
**.coreDebug = true
*.annotations.draw = true

